59053860
  -OEChem-12062314483D

 40 43  0     0  0  0  0  0  0999 V2000
   -0.6927    0.6905   -1.0722 O   0  0  0  0  0  0  0  0  0  0  0  0
   -0.5403   -1.4811   -0.1289 O   0  0  0  0  0  0  0  0  0  0  0  0
   -0.6989    0.4094    1.3040 O   0  0  0  0  0  0  0  0  0  0  0  0
   -2.6209    1.3736   -2.2401 O   0  0  0  0  0  0  0  0  0  0  0  0
   -2.3116   -3.0201   -0.3381 O   0  0  0  0  0  0  0  0  0  0  0  0
   -2.6329    0.8080    2.5887 O   0  0  0  0  0  0  0  0  0  0  0  0
    1.6248   -2.2631   -0.2159 O   0  0  0  0  0  0  0  0  0  0  0  0
    0.4655    2.9284   -0.8854 O   0  0  0  0  0  0  0  0  0  0  0  0
    4.0791    0.4132    0.1312 N   0  0  0  0  0  0  0  0  0  0  0  0
   -2.1257    0.6303   -1.1351 C   0  0  0  0  0  0  0  0  0  0  0  0
   -1.9651   -1.6559   -0.1452 C   0  0  0  0  0  0  0  0  0  0  0  0
   -2.1323    0.3392    1.3443 C   0  0  0  0  0  0  0  0  0  0  0  0
   -2.5198   -0.8398   -1.3186 C   0  0  0  0  0  0  0  0  0  0  0  0
   -2.6888    1.1748    0.1841 C   0  0  0  0  0  0  0  0  0  0  0  0
   -2.5288   -1.1328    1.1820 C   0  0  0  0  0  0  0  0  0  0  0  0
   -0.2066   -0.0893    0.0416 C   0  0  0  0  0  0  0  0  0  0  0  0
    1.3030    0.0904    0.0737 C   0  0  0  0  0  0  0  0  0  0  0  0
    1.8554    1.3563    0.2342 C   0  0  0  0  0  0  0  0  0  0  0  0
    2.1370   -1.0143   -0.0579 C   0  0  0  0  0  0  0  0  0  0  0  0
    3.5058   -0.8015   -0.0230 C   0  0  0  0  0  0  0  0  0  0  0  0
    1.0105    2.5741    0.3804 C   0  0  0  0  0  0  0  0  0  0  0  0
    3.2367    1.4631    0.2561 C   0  0  0  0  0  0  0  0  0  0  0  0
    4.4466   -1.9534   -0.1600 C   0  0  0  0  0  0  0  0  0  0  0  0
   -3.6069   -0.9560   -1.4106 H   0  0  0  0  0  0  0  0  0  0  0  0
   -2.0947   -1.2171   -2.2587 H   0  0  0  0  0  0  0  0  0  0  0  0
   -2.3795    2.2213    0.3077 H   0  0  0  0  0  0  0  0  0  0  0  0
   -3.7856    1.1807    0.1819 H   0  0  0  0  0  0  0  0  0  0  0  0
   -3.6161   -1.2667    1.2376 H   0  0  0  0  0  0  0  0  0  0  0  0
   -2.1082   -1.7151    2.0131 H   0  0  0  0  0  0  0  0  0  0  0  0
   -2.7089    2.3018   -1.9657 H   0  0  0  0  0  0  0  0  0  0  0  0
   -2.3078   -3.4594    0.5287 H   0  0  0  0  0  0  0  0  0  0  0  0
   -2.7191    1.7745    2.5358 H   0  0  0  0  0  0  0  0  0  0  0  0
    0.2161    2.4825    1.1221 H   0  0  0  0  0  0  0  0  0  0  0  0
    1.6243    3.4198    0.7135 H   0  0  0  0  0  0  0  0  0  0  0  0
    3.7309    2.4223    0.3766 H   0  0  0  0  0  0  0  0  0  0  0  0
    2.3280   -2.9261   -0.2934 H   0  0  0  0  0  0  0  0  0  0  0  0
    4.3009   -2.6728    0.6523 H   0  0  0  0  0  0  0  0  0  0  0  0
    5.4866   -1.6121   -0.1113 H   0  0  0  0  0  0  0  0  0  0  0  0
    4.3118   -2.4526   -1.1249 H   0  0  0  0  0  0  0  0  0  0  0  0
   -0.0699    3.7290   -0.7516 H   0  0  0  0  0  0  0  0  0  0  0  0
  1 10  1  0  0  0  0
  1 16  1  0  0  0  0
  2 11  1  0  0  0  0
  2 16  1  0  0  0  0
  3 12  1  0  0  0  0
  3 16  1  0  0  0  0
  4 10  1  0  0  0  0
  4 30  1  0  0  0  0
  5 11  1  0  0  0  0
  5 31  1  0  0  0  0
  6 12  1  0  0  0  0
  6 32  1  0  0  0  0
  7 19  1  0  0  0  0
  7 36  1  0  0  0  0
  8 21  1  0  0  0  0
  8 40  1  0  0  0  0
  9 20  2  0  0  0  0
  9 22  1  0  0  0  0
 10 13  1  0  0  0  0
 10 14  1  0  0  0  0
 11 13  1  0  0  0  0
 11 15  1  0  0  0  0
 12 14  1  0  0  0  0
 12 15  1  0  0  0  0
 13 24  1  0  0  0  0
 13 25  1  0  0  0  0
 14 26  1  0  0  0  0
 14 27  1  0  0  0  0
 15 28  1  0  0  0  0
 15 29  1  0  0  0  0
 16 17  1  0  0  0  0
 17 18  1  0  0  0  0
 17 19  2  0  0  0  0
 18 21  1  0  0  0  0
 18 22  2  0  0  0  0
 19 20  1  0  0  0  0
 20 23  1  0  0  0  0
 21 33  1  0  0  0  0
 21 34  1  0  0  0  0
 22 35  1  0  0  0  0
 23 37  1  0  0  0  0
 23 38  1  0  0  0  0
 23 39  1  0  0  0  0
M  END
> <PUBCHEM_COMPOUND_CID>
59053860

> <PUBCHEM_CONFORMER_RMSD>
0.6

> <PUBCHEM_CONFORMER_DIVERSEORDER>
1
2
3

> <PUBCHEM_MMFF94_PARTIAL_CHARGES>
26
1 -0.56
10 0.56
11 0.56
12 0.56
16 0.98
17 -0.14
18 -0.14
19 0.08
2 -0.56
20 0.17
21 0.42
22 0.16
23 0.14
3 -0.56
30 0.4
31 0.4
32 0.4
35 0.15
36 0.45
4 -0.68
40 0.4
5 -0.68
6 -0.68
7 -0.53
8 -0.68
9 -0.62

> <PUBCHEM_EFFECTIVE_ROTOR_COUNT>
3.2

> <PUBCHEM_PHARMACOPHORE_FEATURES>
18
1 1 acceptor
1 2 acceptor
1 3 acceptor
1 4 acceptor
1 4 donor
1 5 acceptor
1 5 donor
1 6 acceptor
1 6 donor
1 7 donor
1 8 acceptor
1 8 donor
1 9 acceptor
6 1 2 10 11 13 16 rings
6 1 3 10 12 14 16 rings
6 10 11 12 13 14 15 rings
6 2 3 11 12 15 16 rings
6 9 17 18 19 20 22 rings

> <PUBCHEM_HEAVY_ATOM_COUNT>
23

> <PUBCHEM_ATOM_DEF_STEREO_COUNT>
0

> <PUBCHEM_ATOM_UDEF_STEREO_COUNT>
0

> <PUBCHEM_BOND_DEF_STEREO_COUNT>
0

> <PUBCHEM_BOND_UDEF_STEREO_COUNT>
0

> <PUBCHEM_ISOTOPIC_ATOM_COUNT>
0

> <PUBCHEM_COMPONENT_COUNT>
1

> <PUBCHEM_CACTVS_TAUTO_COUNT>
3

> <PUBCHEM_CONFORMER_ID>
0385172400000001

> <PUBCHEM_MMFF94_ENERGY>
68.0447

> <PUBCHEM_FEATURE_SELFOVERLAP>
105.572

> <PUBCHEM_SHAPE_FINGERPRINT>
10863032 1 18342453785202378973
10967382 1 18339359639539211678
11578080 2 17200195233009644120
12553582 1 18196378018309308626
12596599 1 17989213620565516030
12714826 92 17676498211168439944
13024252 1 15285356224144241523
13140716 1 18412544297689320514
13224815 77 18341891922466390930
13296908 3 18260831492765575194
14178342 30 18271524286205666946
14223421 5 18194683906586261706
16945 1 18413109458986247129
18186145 218 18341618122696562406
18219364 16 18408040688891512993
200 152 17917137403438609759
21069387 34 17917131845508128012
21197605 99 17334795084625113353
23184049 59 18198076801705904296
2334 1 18339078302207280214
23419403 2 17412158230298163963
23493267 7 16951127236219450728
23559900 14 18197765790560806720
25 1 17900807267843479933
2748010 2 18410003373440597572
350125 39 18123474040334709592
6992083 37 18271818890538834928
7097593 13 18271261498383754178
74978 22 18413668015367498682
77492 1 17561082505787039416
90525 40 17775570853124560670

> <PUBCHEM_SHAPE_MULTIPOLES>
421.39
6.21
2.68
1.44
5.24
0.08
-0.2
1.75
-0.1
0.47
0.37
-1.86
-0.51
0.17

> <PUBCHEM_SHAPE_SELFOVERLAP>
944.371

> <PUBCHEM_SHAPE_VOLUME>
214.7

> <PUBCHEM_COORDINATE_TYPE>
2
5
10

$$$$
